<?xml version="1.0" encoding="UTF-8"?>

<!-- generated on 2025-04-29 15:19:52.201727 by randomTrips.py v1_22_0+0002-63e50f52594
<configuration>
    <net-file value="network.net.xml"/>
    <route-file value="routes.rou.xml"/>
    <length value="True"/>
    <end value="10000.0"/>
    <period value="20.0"/>
</configuration>
-->

<!-- generated on 2025-04-29 15:19:52 by Eclipse SUMO duarouter Version 1.22.0
<duarouterConfiguration xmlns:xsi="http://www.w3.org/2001/XMLSchema-instance" xsi:noNamespaceSchemaLocation="http://sumo.dlr.de/xsd/duarouterConfiguration.xsd">

    <input>
        <net-file value="network.net.xml"/>
        <route-files value="trips.trips.xml"/>
    </input>

    <output>
        <output-file value="routes.rou.xml"/>
        <alternatives-output value="NUL"/>
    </output>

    <time>
        <begin value="0"/>
        <end value="10000.0"/>
    </time>

    <report>
        <no-warnings value="true"/>
        <ignore-errors value="true"/>
        <no-step-log value="true"/>
    </report>

</duarouterConfiguration>
-->

<routes xmlns:xsi="http://www.w3.org/2001/XMLSchema-instance" xsi:noNamespaceSchemaLocation="http://sumo.dlr.de/xsd/routes_file.xsd">
    <vehicle id="0" depart="0.00">
        <route edges="e3_out_east e4_in_east e4_out_north e2_in_south e2_out_east e1_in_east"/>
    </vehicle>
    <vehicle id="1" depart="20.00">
        <route edges="e1_out_east"/>
    </vehicle>
    <vehicle id="2" depart="40.00">
        <route edges="e3_out_east"/>
    </vehicle>
    <vehicle id="3" depart="60.00">
        <route edges="e4_in_west e4_out_north e2_in_south e2_out_east e1_in_east"/>
    </vehicle>
    <vehicle id="4" depart="80.00">
        <route edges="e2_out_east e1_in_east"/>
    </vehicle>
    <vehicle id="5" depart="100.00">
        <route edges="e1_out_east e2_in_east e2_out_south e4_in_north e4_out_east e3_in_east"/>
    </vehicle>
    <vehicle id="6" depart="120.00">
        <route edges="e1_in_east e1_out_east"/>
    </vehicle>
    <vehicle id="7" depart="140.00">
        <route edges="e3_out_east e4_in_east e4_out_east e3_in_east"/>
    </vehicle>
    <vehicle id="8" depart="160.00">
        <route edges="e1_out_east e2_in_east e2_out_east e1_in_east e1_out_south e3_in_north"/>
    </vehicle>
    <vehicle id="9" depart="180.00">
        <route edges="e4_in_east e4_out_north e2_in_south e2_out_east e1_in_east"/>
    </vehicle>
    <vehicle id="10" depart="200.00">
        <route edges="e4_in_east e4_out_east e3_in_east e3_out_east"/>
    </vehicle>
    <vehicle id="11" depart="220.00">
        <route edges="e2_in_west e2_out_east e1_in_east e1_out_east"/>
    </vehicle>
    <vehicle id="12" depart="240.00">
        <route edges="e4_out_east e3_in_east e3_out_north e1_in_south e1_out_east e2_in_east e2_out_east"/>
    </vehicle>
    <vehicle id="13" depart="260.00">
        <route edges="e1_in_east"/>
    </vehicle>
    <vehicle id="14" depart="280.00">
        <route edges="e4_in_north e4_out_east e3_in_east e3_out_east"/>
    </vehicle>
    <vehicle id="15" depart="300.00">
        <route edges="e4_in_east e4_out_east e3_in_east e3_out_north"/>
    </vehicle>
    <vehicle id="16" depart="320.00">
        <route edges="e3_in_east e3_out_east e4_in_east e4_out_west"/>
    </vehicle>
    <vehicle id="17" depart="340.00">
        <route edges="e2_in_west e2_out_south e4_in_north e4_out_east e3_in_east"/>
    </vehicle>
    <vehicle id="18" depart="360.00">
        <route edges="e4_in_north e4_out_east e3_in_east e3_out_east"/>
    </vehicle>
    <vehicle id="19" depart="380.00">
        <route edges="e4_in_west e4_out_north e2_in_south e2_out_east e1_in_east e1_out_south e3_in_north"/>
    </vehicle>
    <vehicle id="20" depart="400.00">
        <route edges="e3_out_east e4_in_east e4_out_north e2_in_south e2_out_east e1_in_east"/>
    </vehicle>
    <vehicle id="21" depart="420.00">
        <route edges="e1_out_east e2_in_east e2_out_east e1_in_east e1_out_west"/>
    </vehicle>
    <vehicle id="22" depart="440.00">
        <route edges="e1_in_east e1_out_east"/>
    </vehicle>
    <vehicle id="23" depart="460.00">
        <route edges="e1_in_east e1_out_west"/>
    </vehicle>
    <vehicle id="24" depart="480.00">
        <route edges="e3_out_east e4_in_east e4_out_north e2_in_south e2_out_west"/>
    </vehicle>
    <vehicle id="25" depart="500.00">
        <route edges="e2_in_west e2_out_east e1_in_east e1_out_east"/>
    </vehicle>
    <vehicle id="26" depart="520.00">
        <route edges="e1_out_east e2_in_east e2_out_south e4_in_north e4_out_west"/>
    </vehicle>
    <vehicle id="27" depart="540.00">
        <route edges="e3_out_east"/>
    </vehicle>
    <vehicle id="28" depart="560.00">
        <route edges="e1_out_east e2_in_east e2_out_south e4_in_north e4_out_east e3_in_east e3_out_north"/>
    </vehicle>
    <vehicle id="29" depart="580.00">
        <route edges="e1_out_east e2_in_east e2_out_west"/>
    </vehicle>
    <vehicle id="30" depart="600.00">
        <route edges="e4_out_north e2_in_south e2_out_east e1_in_east e1_out_south e3_in_north e3_out_east"/>
    </vehicle>
    <vehicle id="31" depart="620.00">
        <route edges="e3_in_east e3_out_east"/>
    </vehicle>
    <vehicle id="32" depart="640.00">
        <route edges="e4_in_north e4_out_east e3_in_east e3_out_west"/>
    </vehicle>
    <vehicle id="33" depart="660.00">
        <route edges="e1_out_east e2_in_east e2_out_east e1_in_east"/>
    </vehicle>
    <vehicle id="34" depart="680.00">
        <route edges="e2_in_north e2_out_east e1_in_east e1_out_south"/>
    </vehicle>
    <vehicle id="35" depart="700.00">
        <route edges="e1_out_east e2_in_east e2_out_south e4_in_north e4_out_west"/>
    </vehicle>
    <vehicle id="36" depart="720.00">
        <route edges="e4_in_west e4_out_north e2_in_south"/>
    </vehicle>
    <vehicle id="37" depart="740.00">
        <route edges="e3_out_east e4_in_east e4_out_north e2_in_south e2_out_west"/>
    </vehicle>
    <vehicle id="38" depart="760.00">
        <route edges="e4_in_west e4_out_east e3_in_east"/>
    </vehicle>
    <vehicle id="39" depart="780.00">
        <route edges="e1_out_east"/>
    </vehicle>
    <vehicle id="40" depart="800.00">
        <route edges="e3_in_north e3_out_north e1_in_south e1_out_north"/>
    </vehicle>
    <vehicle id="41" depart="820.00">
        <route edges="e3_in_north e3_out_east e4_in_east e4_out_north"/>
    </vehicle>
    <vehicle id="42" depart="840.00">
        <route edges="e2_in_west e2_out_east e1_in_east e1_out_east"/>
    </vehicle>
    <vehicle id="43" depart="860.00">
        <route edges="e4_out_north e2_in_south e2_out_south e4_in_north e4_out_east e3_in_east"/>
    </vehicle>
    <vehicle id="44" depart="880.00">
        <route edges="e1_in_east"/>
    </vehicle>
    <vehicle id="45" depart="900.00">
        <route edges="e1_in_east e1_out_south e3_in_north e3_out_east"/>
    </vehicle>
    <vehicle id="46" depart="920.00">
        <route edges="e4_in_east e4_out_north e2_in_south e2_out_west"/>
    </vehicle>
    <vehicle id="47" depart="940.00">
        <route edges="e1_in_east e1_out_east e2_in_east e2_out_west"/>
    </vehicle>
    <vehicle id="48" depart="960.00">
        <route edges="e4_out_north e2_in_south e2_out_south e4_in_north e4_out_east e3_in_east"/>
    </vehicle>
    <vehicle id="49" depart="980.00">
        <route edges="e4_out_north e2_in_south e2_out_south e4_in_north e4_out_east"/>
    </vehicle>
    <vehicle id="50" depart="1000.00">
        <route edges="e1_in_east e1_out_south e3_in_north e3_out_east"/>
    </vehicle>
    <vehicle id="51" depart="1020.00">
        <route edges="e3_out_east e4_in_east e4_out_east e3_in_east"/>
    </vehicle>
    <vehicle id="52" depart="1040.00">
        <route edges="e1_out_east e2_in_east e2_out_east e1_in_east e1_out_south e3_in_north e3_out_east"/>
    </vehicle>
    <vehicle id="53" depart="1060.00">
        <route edges="e1_in_east e1_out_east e2_in_east e2_out_west"/>
    </vehicle>
    <vehicle id="54" depart="1080.00">
        <route edges="e3_in_east e3_out_east e4_in_east e4_out_west"/>
    </vehicle>
    <vehicle id="55" depart="1100.00">
        <route edges="e4_in_west e4_out_east e3_in_east e3_out_north e1_in_south e1_out_north"/>
    </vehicle>
    <vehicle id="56" depart="1120.00">
        <route edges="e3_in_east e3_out_north e1_in_south e1_out_east"/>
    </vehicle>
    <vehicle id="57" depart="1140.00">
        <route edges="e4_in_west e4_out_north"/>
    </vehicle>
    <vehicle id="58" depart="1160.00">
        <route edges="e2_in_east e2_out_east e1_in_east e1_out_south e3_in_north e3_out_east"/>
    </vehicle>
    <vehicle id="59" depart="1180.00">
        <route edges="e3_in_south e3_out_north e1_in_south e1_out_east"/>
    </vehicle>
    <vehicle id="60" depart="1200.00">
        <route edges="e3_out_north e1_in_south e1_out_east e2_in_east e2_out_south e4_in_north e4_out_east e3_in_east"/>
    </vehicle>
    <vehicle id="61" depart="1220.00">
        <route edges="e3_out_north e1_in_south e1_out_east e2_in_east e2_out_south e4_in_north e4_out_east e3_in_east"/>
    </vehicle>
    <vehicle id="62" depart="1240.00">
        <route edges="e1_in_east e1_out_east e2_in_east e2_out_east"/>
    </vehicle>
    <vehicle id="63" depart="1260.00">
        <route edges="e1_in_east e1_out_south e3_in_north e3_out_east e4_in_east e4_out_west"/>
    </vehicle>
    <vehicle id="64" depart="1280.00">
        <route edges="e4_in_west e4_out_north e2_in_south e2_out_south e4_in_north"/>
    </vehicle>
    <vehicle id="65" depart="1300.00">
        <route edges="e2_in_east e2_out_east e1_in_east"/>
    </vehicle>
    <vehicle id="66" depart="1320.00">
        <route edges="e4_in_west e4_out_west"/>
    </vehicle>
    <vehicle id="67" depart="1340.00">
        <route edges="e1_in_east e1_out_south e3_in_north e3_out_east e4_in_east e4_out_east e3_in_east"/>
    </vehicle>
    <vehicle id="68" depart="1360.00">
        <route edges="e1_in_east e1_out_south e3_in_north e3_out_north"/>
    </vehicle>
    <vehicle id="69" depart="1380.00">
        <route edges="e3_out_north e1_in_south"/>
    </vehicle>
    <vehicle id="70" depart="1400.00">
        <route edges="e3_in_east"/>
    </vehicle>
    <vehicle id="71" depart="1420.00">
        <route edges="e1_out_east e2_in_east e2_out_south e4_in_north e4_out_north"/>
    </vehicle>
    <vehicle id="72" depart="1440.00">
        <route edges="e2_out_east e1_in_east e1_out_east"/>
    </vehicle>
    <vehicle id="73" depart="1460.00">
        <route edges="e3_in_east e3_out_north"/>
    </vehicle>
    <vehicle id="74" depart="1480.00">
        <route edges="e1_out_east e2_in_east e2_out_south e4_in_north e4_out_north e2_in_south"/>
    </vehicle>
    <vehicle id="75" depart="1500.00">
        <route edges="e4_out_north e2_in_south e2_out_east e1_in_east e1_out_south e3_in_north e3_out_east"/>
    </vehicle>
    <vehicle id="76" depart="1520.00">
        <route edges="e3_in_east"/>
    </vehicle>
    <vehicle id="77" depart="1540.00">
        <route edges="e1_in_east e1_out_east"/>
    </vehicle>
    <vehicle id="78" depart="1560.00">
        <route edges="e2_in_west e2_out_east e1_in_east e1_out_south e3_in_north"/>
    </vehicle>
    <vehicle id="79" depart="1580.00">
        <route edges="e1_out_east"/>
    </vehicle>
    <vehicle id="80" depart="1600.00">
        <route edges="e1_in_east e1_out_south e3_in_north e3_out_east"/>
    </vehicle>
    <vehicle id="81" depart="1620.00">
        <route edges="e1_out_east e2_in_east e2_out_south e4_in_north e4_out_north"/>
    </vehicle>
    <vehicle id="82" depart="1640.00">
        <route edges="e4_in_west e4_out_north e2_in_south e2_out_east e1_in_east"/>
    </vehicle>
    <vehicle id="83" depart="1660.00">
        <route edges="e1_out_east e2_in_east e2_out_east e1_in_east e1_out_south e3_in_north e3_out_east"/>
    </vehicle>
    <vehicle id="84" depart="1680.00">
        <route edges="e1_out_east"/>
    </vehicle>
    <vehicle id="85" depart="1700.00">
        <route edges="e4_in_west e4_out_north e2_in_south e2_out_east e1_in_east e1_out_south e3_in_north"/>
    </vehicle>
    <vehicle id="86" depart="1720.00">
        <route edges="e3_in_east e3_out_west"/>
    </vehicle>
    <vehicle id="87" depart="1740.00">
        <route edges="e4_in_east e4_out_east e3_in_east e3_out_north e1_in_south e1_out_east"/>
    </vehicle>
    <vehicle id="88" depart="1760.00">
        <route edges="e1_in_east e1_out_east e2_in_east e2_out_west"/>
    </vehicle>
    <vehicle id="89" depart="1780.00">
        <route edges="e2_out_east e1_in_east e1_out_south e3_in_north e3_out_east e4_in_east e4_out_east e3_in_east"/>
    </vehicle>
    <vehicle id="90" depart="1800.00">
        <route edges="e3_out_east"/>
    </vehicle>
    <vehicle id="91" depart="1820.00">
        <route edges="e4_out_north e2_in_south e2_out_east e1_in_east"/>
    </vehicle>
    <vehicle id="92" depart="1840.00">
        <route edges="e2_in_west e2_out_north"/>
    </vehicle>
    <vehicle id="93" depart="1860.00">
        <route edges="e4_in_west e4_out_east e3_in_east e3_out_north e1_in_south e1_out_east"/>
    </vehicle>
    <vehicle id="94" depart="1880.00">
        <route edges="e1_out_east e2_in_east e2_out_south e4_in_north e4_out_east e3_in_east"/>
    </vehicle>
    <vehicle id="95" depart="1900.00">
        <route edges="e2_out_east e1_in_east e1_out_west"/>
    </vehicle>
    <vehicle id="96" depart="1920.00">
        <route edges="e1_out_east e2_in_east e2_out_south e4_in_north e4_out_west"/>
    </vehicle>
    <vehicle id="97" depart="1940.00">
        <route edges="e3_in_east e3_out_east e4_in_east e4_out_east"/>
    </vehicle>
    <vehicle id="98" depart="1960.00">
        <route edges="e3_in_east e3_out_north e1_in_south e1_out_east e2_in_east e2_out_east e1_in_east"/>
    </vehicle>
    <vehicle id="99" depart="1980.00">
        <route edges="e4_out_north e2_in_south e2_out_south e4_in_north"/>
    </vehicle>
    <vehicle id="100" depart="2000.00">
        <route edges="e4_out_north e2_in_south e2_out_south e4_in_north e4_out_west"/>
    </vehicle>
    <vehicle id="101" depart="2020.00">
        <route edges="e4_in_north e4_out_east e3_in_east e3_out_north e1_in_south e1_out_east"/>
    </vehicle>
    <vehicle id="102" depart="2040.00">
        <route edges="e3_in_east e3_out_north e1_in_south e1_out_east"/>
    </vehicle>
    <vehicle id="103" depart="2060.00">
        <route edges="e2_in_west e2_out_east e1_in_east"/>
    </vehicle>
    <vehicle id="104" depart="2080.00">
        <route edges="e2_in_west e2_out_south e4_in_north e4_out_west"/>
    </vehicle>
    <vehicle id="105" depart="2100.00">
        <route edges="e1_out_east e2_in_east e2_out_south e4_in_north e4_out_east e3_in_east e3_out_west"/>
    </vehicle>
    <vehicle id="106" depart="2120.00">
        <route edges="e3_in_east e3_out_north e1_in_south e1_out_east e2_in_east e2_out_west"/>
    </vehicle>
    <vehicle id="107" depart="2140.00">
        <route edges="e4_out_east e3_in_east e3_out_east e4_in_east e4_out_west"/>
    </vehicle>
    <vehicle id="108" depart="2160.00">
        <route edges="e3_in_east e3_out_east"/>
    </vehicle>
    <vehicle id="109" depart="2180.00">
        <route edges="e1_in_west e1_out_east e2_in_east"/>
    </vehicle>
    <vehicle id="110" depart="2200.00">
        <route edges="e4_out_north e2_in_south e2_out_east e1_in_east e1_out_south e3_in_north"/>
    </vehicle>
    <vehicle id="111" depart="2220.00">
        <route edges="e3_in_east e3_out_north"/>
    </vehicle>
    <vehicle id="112" depart="2240.00">
        <route edges="e1_in_east e1_out_south e3_in_north"/>
    </vehicle>
    <vehicle id="113" depart="2260.00">
        <route edges="e3_in_east e3_out_east e4_in_east e4_out_east"/>
    </vehicle>
    <vehicle id="114" depart="2280.00">
        <route edges="e1_in_west e1_out_east e2_in_east e2_out_south e4_in_north e4_out_west"/>
    </vehicle>
    <vehicle id="115" depart="2300.00">
        <route edges="e1_in_east e1_out_east"/>
    </vehicle>
    <vehicle id="116" depart="2320.00">
        <route edges="e3_in_north e3_out_east"/>
    </vehicle>
    <vehicle id="117" depart="2340.00">
        <route edges="e1_out_east e2_in_east e2_out_east e1_in_east"/>
    </vehicle>
    <vehicle id="118" depart="2360.00">
        <route edges="e4_in_west e4_out_east e3_in_east e3_out_north e1_in_south e1_out_east"/>
    </vehicle>
    <vehicle id="119" depart="2380.00">
        <route edges="e3_in_north e3_out_east"/>
    </vehicle>
    <vehicle id="120" depart="2400.00">
        <route edges="e2_out_east e1_in_east e1_out_south e3_in_north"/>
    </vehicle>
    <vehicle id="121" depart="2420.00">
        <route edges="e3_in_east e3_out_east e4_in_east e4_out_west"/>
    </vehicle>
    <vehicle id="122" depart="2440.00">
        <route edges="e1_out_east e2_in_east e2_out_east e1_in_east e1_out_south e3_in_north e3_out_east"/>
    </vehicle>
    <vehicle id="123" depart="2460.00">
        <route edges="e1_out_east e2_in_east e2_out_west"/>
    </vehicle>
    <vehicle id="124" depart="2480.00">
        <route edges="e3_out_east e4_in_east e4_out_east e3_in_east e3_out_north e1_in_south e1_out_east e2_in_east"/>
    </vehicle>
    <vehicle id="125" depart="2500.00">
        <route edges="e2_in_north e2_out_south e4_in_north e4_out_east e3_in_east e3_out_north"/>
    </vehicle>
    <vehicle id="126" depart="2520.00">
        <route edges="e1_in_east e1_out_south e3_in_north e3_out_east e4_in_east e4_out_east e3_in_east"/>
    </vehicle>
    <vehicle id="127" depart="2540.00">
        <route edges="e4_out_north e2_in_south e2_out_south e4_in_north e4_out_west"/>
    </vehicle>
    <vehicle id="128" depart="2560.00">
        <route edges="e1_in_east e1_out_east"/>
    </vehicle>
    <vehicle id="129" depart="2580.00">
        <route edges="e1_out_east e2_in_east e2_out_south e4_in_north e4_out_west"/>
    </vehicle>
    <vehicle id="130" depart="2600.00">
        <route edges="e4_in_west e4_out_north"/>
    </vehicle>
    <vehicle id="131" depart="2620.00">
        <route edges="e2_in_west e2_out_east e1_in_east e1_out_east"/>
    </vehicle>
    <vehicle id="132" depart="2640.00">
        <route edges="e4_in_north e4_out_east e3_in_east e3_out_east"/>
    </vehicle>
    <vehicle id="133" depart="2660.00">
        <route edges="e3_in_west e3_out_east e4_in_east e4_out_west"/>
    </vehicle>
    <vehicle id="134" depart="2680.00">
        <route edges="e3_out_east e4_in_east e4_out_north e2_in_south e2_out_east e1_in_east"/>
    </vehicle>
    <vehicle id="135" depart="2700.00">
        <route edges="e4_in_north e4_out_east e3_in_east e3_out_north e1_in_south e1_out_east e2_in_east"/>
    </vehicle>
    <vehicle id="136" depart="2720.00">
        <route edges="e3_out_east e4_in_east e4_out_west"/>
    </vehicle>
    <vehicle id="137" depart="2740.00">
        <route edges="e1_in_south e1_out_east e2_in_east e2_out_east e1_in_east"/>
    </vehicle>
    <vehicle id="138" depart="2760.00">
        <route edges="e1_in_east e1_out_south e3_in_north e3_out_east e4_in_east e4_out_east e3_in_east"/>
    </vehicle>
    <vehicle id="139" depart="2780.00">
        <route edges="e1_out_east e2_in_east e2_out_east e1_in_east e1_out_south e3_in_north e3_out_east"/>
    </vehicle>
    <vehicle id="140" depart="2800.00">
        <route edges="e3_out_east e4_in_east e4_out_east e3_in_east e3_out_north e1_in_south e1_out_east"/>
    </vehicle>
    <vehicle id="141" depart="2820.00">
        <route edges="e3_out_east e4_in_east e4_out_north e2_in_south e2_out_east e1_in_east e1_out_north"/>
    </vehicle>
    <vehicle id="142" depart="2840.00">
        <route edges="e3_in_east e3_out_east e4_in_east e4_out_north"/>
    </vehicle>
    <vehicle id="143" depart="2860.00">
        <route edges="e4_in_north e4_out_north e2_in_south e2_out_east e1_in_east"/>
    </vehicle>
    <vehicle id="144" depart="2880.00">
        <route edges="e2_out_east e1_in_east e1_out_west"/>
    </vehicle>
    <vehicle id="145" depart="2900.00">
        <route edges="e1_in_east e1_out_south e3_in_north e3_out_south"/>
    </vehicle>
    <vehicle id="146" depart="2920.00">
        <route edges="e3_out_east e4_in_east e4_out_north e2_in_south e2_out_east e1_in_east e1_out_north"/>
    </vehicle>
    <vehicle id="147" depart="2940.00">
        <route edges="e3_out_east e4_in_east e4_out_east e3_in_east"/>
    </vehicle>
    <vehicle id="148" depart="2960.00">
        <route edges="e2_out_east e1_in_east"/>
    </vehicle>
    <vehicle id="149" depart="2980.00">
        <route edges="e1_in_east e1_out_south e3_in_north e3_out_east e4_in_east e4_out_north"/>
    </vehicle>
    <vehicle id="150" depart="3000.00">
        <route edges="e4_in_west e4_out_east e3_in_east"/>
    </vehicle>
    <vehicle id="151" depart="3020.00">
        <route edges="e4_in_north e4_out_east e3_in_east e3_out_north e1_in_south e1_out_south e3_in_north"/>
    </vehicle>
    <vehicle id="152" depart="3040.00">
        <route edges="e1_in_west e1_out_south e3_in_north e3_out_north e1_in_south"/>
    </vehicle>
    <vehicle id="153" depart="3060.00">
        <route edges="e2_in_east e2_out_south e4_in_north e4_out_north"/>
    </vehicle>
    <vehicle id="154" depart="3080.00">
        <route edges="e4_in_east e4_out_east"/>
    </vehicle>
    <vehicle id="155" depart="3100.00">
        <route edges="e4_in_west e4_out_east e3_in_east e3_out_north e1_in_south e1_out_east"/>
    </vehicle>
    <vehicle id="156" depart="3120.00">
        <route edges="e1_out_east e2_in_east e2_out_east e1_in_east"/>
    </vehicle>
    <vehicle id="157" depart="3140.00">
        <route edges="e3_out_north e1_in_south e1_out_east e2_in_east e2_out_south e4_in_north e4_out_north"/>
    </vehicle>
    <vehicle id="158" depart="3160.00">
        <route edges="e2_in_west e2_out_east e1_in_east e1_out_south e3_in_north e3_out_east"/>
    </vehicle>
    <vehicle id="159" depart="3180.00">
        <route edges="e1_in_west e1_out_east e2_in_east e2_out_south e4_in_north e4_out_west"/>
    </vehicle>
    <vehicle id="160" depart="3200.00">
        <route edges="e4_in_west e4_out_west"/>
    </vehicle>
    <vehicle id="161" depart="3220.00">
        <route edges="e4_in_east e4_out_north"/>
    </vehicle>
    <vehicle id="162" depart="3240.00">
        <route edges="e1_in_east e1_out_south e3_in_north e3_out_north"/>
    </vehicle>
    <vehicle id="163" depart="3260.00">
        <route edges="e2_in_west e2_out_south e4_in_north e4_out_west"/>
    </vehicle>
    <vehicle id="164" depart="3280.00">
        <route edges="e4_in_east e4_out_east"/>
    </vehicle>
    <vehicle id="165" depart="3300.00">
        <route edges="e4_in_east e4_out_north e2_in_south e2_out_east e1_in_east e1_out_south"/>
    </vehicle>
    <vehicle id="166" depart="3320.00">
        <route edges="e3_out_north e1_in_south e1_out_east e2_in_east e2_out_east e1_in_east"/>
    </vehicle>
    <vehicle id="167" depart="3340.00">
        <route edges="e4_in_west e4_out_east"/>
    </vehicle>
    <vehicle id="168" depart="3360.00">
        <route edges="e1_out_east e2_in_east e2_out_south e4_in_north"/>
    </vehicle>
    <vehicle id="169" depart="3380.00">
        <route edges="e3_in_east e3_out_north e1_in_south e1_out_east e2_in_east"/>
    </vehicle>
    <vehicle id="170" depart="3400.00">
        <route edges="e4_in_east e4_out_east e3_in_east e3_out_north e1_in_south e1_out_east"/>
    </vehicle>
    <vehicle id="171" depart="3420.00">
        <route edges="e1_in_east e1_out_east"/>
    </vehicle>
    <vehicle id="172" depart="3440.00">
        <route edges="e2_in_west e2_out_south e4_in_north e4_out_east"/>
    </vehicle>
    <vehicle id="173" depart="3460.00">
        <route edges="e4_out_north e2_in_south e2_out_east e1_in_east e1_out_west"/>
    </vehicle>
    <vehicle id="174" depart="3480.00">
        <route edges="e3_out_east e4_in_east e4_out_north e2_in_south e2_out_west"/>
    </vehicle>
    <vehicle id="175" depart="3500.00">
        <route edges="e4_out_north e2_in_south e2_out_south e4_in_north e4_out_east e3_in_east"/>
    </vehicle>
    <vehicle id="176" depart="3520.00">
        <route edges="e4_in_west e4_out_north e2_in_south e2_out_east e1_in_east"/>
    </vehicle>
    <vehicle id="177" depart="3540.00">
        <route edges="e4_out_north e2_in_south e2_out_east e1_in_east e1_out_east"/>
    </vehicle>
    <vehicle id="178" depart="3560.00">
        <route edges="e4_out_north e2_in_south e2_out_east e1_in_east e1_out_south"/>
    </vehicle>
    <vehicle id="179" depart="3580.00">
        <route edges="e1_in_east e1_out_east e2_in_east e2_out_west"/>
    </vehicle>
    <vehicle id="180" depart="3600.00">
        <route edges="e3_out_east e4_in_east e4_out_north e2_in_south"/>
    </vehicle>
    <vehicle id="181" depart="3620.00">
        <route edges="e3_in_south e3_out_east e4_in_east e4_out_east e3_in_east"/>
    </vehicle>
    <vehicle id="182" depart="3640.00">
        <route edges="e2_in_west e2_out_east e1_in_east e1_out_south e3_in_north"/>
    </vehicle>
    <vehicle id="183" depart="3660.00">
        <route edges="e1_out_east e2_in_east e2_out_east e1_in_east e1_out_south e3_in_north e3_out_east"/>
    </vehicle>
    <vehicle id="184" depart="3680.00">
        <route edges="e1_in_east e1_out_south e3_in_north e3_out_east e4_in_east e4_out_west"/>
    </vehicle>
    <vehicle id="185" depart="3700.00">
        <route edges="e3_in_east e3_out_east"/>
    </vehicle>
    <vehicle id="186" depart="3720.00">
        <route edges="e3_out_east"/>
    </vehicle>
    <vehicle id="187" depart="3740.00">
        <route edges="e2_in_west e2_out_east e1_in_east"/>
    </vehicle>
    <vehicle id="188" depart="3760.00">
        <route edges="e3_out_east e4_in_east e4_out_north e2_in_south e2_out_east"/>
    </vehicle>
    <vehicle id="189" depart="3780.00">
        <route edges="e2_in_north e2_out_south e4_in_north"/>
    </vehicle>
    <vehicle id="190" depart="3800.00">
        <route edges="e3_out_east e4_in_east e4_out_east e3_in_east e3_out_north e1_in_south e1_out_east e2_in_east"/>
    </vehicle>
    <vehicle id="191" depart="3820.00">
        <route edges="e2_in_east e2_out_west"/>
    </vehicle>
    <vehicle id="192" depart="3840.00">
        <route edges="e2_in_west e2_out_east e1_in_east e1_out_east e2_in_east"/>
    </vehicle>
    <vehicle id="193" depart="3860.00">
        <route edges="e1_in_north e1_out_east e2_in_east e2_out_west"/>
    </vehicle>
    <vehicle id="194" depart="3880.00">
        <route edges="e4_in_west e4_out_east e3_in_east e3_out_east"/>
    </vehicle>
    <vehicle id="195" depart="3900.00">
        <route edges="e4_in_west e4_out_east e3_in_east e3_out_east"/>
    </vehicle>
    <vehicle id="196" depart="3920.00">
        <route edges="e2_in_east e2_out_south e4_in_north e4_out_east e3_in_east"/>
    </vehicle>
    <vehicle id="197" depart="3940.00">
        <route edges="e1_in_east e1_out_west"/>
    </vehicle>
    <vehicle id="198" depart="3960.00">
        <route edges="e2_out_south e4_in_north e4_out_east e3_in_east e3_out_north e1_in_south e1_out_south e3_in_north"/>
    </vehicle>
    <vehicle id="199" depart="3980.00">
        <route edges="e3_out_east e4_in_east e4_out_east e3_in_east"/>
    </vehicle>
    <vehicle id="200" depart="4000.00">
        <route edges="e3_in_east e3_out_north e1_in_south e1_out_east"/>
    </vehicle>
    <vehicle id="201" depart="4020.00">
        <route edges="e3_in_east e3_out_east e4_in_east e4_out_north"/>
    </vehicle>
    <vehicle id="202" depart="4040.00">
        <route edges="e4_in_east e4_out_east e3_in_east e3_out_north e1_in_south e1_out_east"/>
    </vehicle>
    <vehicle id="203" depart="4060.00">
        <route edges="e1_in_east e1_out_south e3_in_north e3_out_east e4_in_east e4_out_east e3_in_east"/>
    </vehicle>
    <vehicle id="204" depart="4080.00">
        <route edges="e3_out_east e4_in_east e4_out_north e2_in_south e2_out_east"/>
    </vehicle>
    <vehicle id="205" depart="4100.00">
        <route edges="e4_in_north e4_out_east e3_in_east e3_out_north"/>
    </vehicle>
    <vehicle id="206" depart="4120.00">
        <route edges="e3_out_east e4_in_east e4_out_east e3_in_east e3_out_north e1_in_south e1_out_east"/>
    </vehicle>
    <vehicle id="207" depart="4140.00">
        <route edges="e1_out_east e2_in_east e2_out_east e1_in_east"/>
    </vehicle>
    <vehicle id="208" depart="4160.00">
        <route edges="e1_out_east e2_in_east e2_out_south e4_in_north e4_out_east e3_in_east"/>
    </vehicle>
    <vehicle id="209" depart="4180.00">
        <route edges="e4_in_north e4_out_north e2_in_south e2_out_east e1_in_east"/>
    </vehicle>
    <vehicle id="210" depart="4200.00">
        <route edges="e2_out_east e1_in_east e1_out_south e3_in_north e3_out_east"/>
    </vehicle>
    <vehicle id="211" depart="4220.00">
        <route edges="e1_out_east e2_in_east e2_out_east e1_in_east e1_out_south e3_in_north e3_out_east"/>
    </vehicle>
    <vehicle id="212" depart="4240.00">
        <route edges="e3_in_east e3_out_north e1_in_south e1_out_east"/>
    </vehicle>
    <vehicle id="213" depart="4260.00">
        <route edges="e3_out_east e4_in_east e4_out_north e2_in_south e2_out_east e1_in_east"/>
    </vehicle>
    <vehicle id="214" depart="4280.00">
        <route edges="e3_out_east e4_in_east e4_out_east e3_in_east e3_out_south"/>
    </vehicle>
    <vehicle id="215" depart="4300.00">
        <route edges="e1_in_east e1_out_east e2_in_east e2_out_west"/>
    </vehicle>
    <vehicle id="216" depart="4320.00">
        <route edges="e1_out_east e2_in_east e2_out_south e4_in_north e4_out_west"/>
    </vehicle>
    <vehicle id="217" depart="4340.00">
        <route edges="e3_in_east e3_out_north e1_in_south e1_out_east e2_in_east e2_out_east e1_in_east"/>
    </vehicle>
    <vehicle id="218" depart="4360.00">