<?xml version="1.0" encoding="UTF-8"?>

<!-- generated on 2025-04-29 15:19:52.045420 by randomTrips.py v1_22_0+0002-63e50f52594
<configuration>
    <net-file value="network.net.xml"/>
    <route-file value="routes.rou.xml"/>
    <length value="True"/>
    <end value="10000.0"/>
    <period value="20.0"/>
</configuration>
-->

<routes xmlns:xsi="http://www.w3.org/2001/XMLSchema-instance" xsi:noNamespaceSchemaLocation="http://sumo.dlr.de/xsd/routes_file.xsd">
    <trip id="0" depart="0.00" from="e3_out_east" to="e1_in_east"/>
    <trip id="1" depart="20.00" from="e1_out_east" to="e1_out_east"/>
    <trip id="2" depart="40.00" from="e3_out_east" to="e3_out_east"/>
    <trip id="3" depart="60.00" from="e4_in_west" to="e1_in_east"/>
    <trip id="4" depart="80.00" from="e2_out_east" to="e1_in_east"/>
    <trip id="5" depart="100.00" from="e1_out_east" to="e3_in_east"/>
    <trip id="6" depart="120.00" from="e1_in_east" to="e1_out_east"/>
    <trip id="7" depart="140.00" from="e3_out_east" to="e3_in_east"/>
    <trip id="8" depart="160.00" from="e1_out_east" to="e3_in_north"/>
    <trip id="9" depart="180.00" from="e4_in_east" to="e1_in_east"/>
    <trip id="10" depart="200.00" from="e4_in_east" to="e3_out_east"/>
    <trip id="11" depart="220.00" from="e2_in_west" to="e1_out_east"/>
    <trip id="12" depart="240.00" from="e4_out_east" to="e2_out_east"/>
    <trip id="13" depart="260.00" from="e1_in_east" to="e1_in_east"/>
    <trip id="14" depart="280.00" from="e4_in_north" to="e3_out_east"/>
    <trip id="15" depart="300.00" from="e4_in_east" to="e3_out_north"/>
    <trip id="16" depart="320.00" from="e3_in_east" to="e4_out_west"/>
    <trip id="17" depart="340.00" from="e2_in_west" to="e3_in_east"/>
    <trip id="18" depart="360.00" from="e4_in_north" to="e3_out_east"/>
    <trip id="19" depart="380.00" from="e4_in_west" to="e3_in_north"/>
    <trip id="20" depart="400.00" from="e3_out_east" to="e1_in_east"/>
    <trip id="21" depart="420.00" from="e1_out_east" to="e1_out_west"/>
    <trip id="22" depart="440.00" from="e1_in_east" to="e1_out_east"/>
    <trip id="23" depart="460.00" from="e1_in_east" to="e1_out_west"/>
    <trip id="24" depart="480.00" from="e3_out_east" to="e2_out_west"/>
    <trip id="25" depart="500.00" from="e2_in_west" to="e1_out_east"/>
    <trip id="26" depart="520.00" from="e1_out_east" to="e4_out_west"/>
    <trip id="27" depart="540.00" from="e3_out_east" to="e3_out_east"/>
    <trip id="28" depart="560.00" from="e1_out_east" to="e3_out_north"/>
    <trip id="29" depart="580.00" from="e1_out_east" to="e2_out_west"/>
    <trip id="30" depart="600.00" from="e4_out_north" to="e3_out_east"/>
    <trip id="31" depart="620.00" from="e3_in_east" to="e3_out_east"/>
    <trip id="32" depart="640.00" from="e4_in_north" to="e3_out_west"/>
    <trip id="33" depart="660.00" from="e1_out_east" to="e1_in_east"/>
    <trip id="34" depart="680.00" from="e2_in_north" to="e1_out_south"/>
    <trip id="35" depart="700.00" from="e1_out_east" to="e4_out_west"/>
    <trip id="36" depart="720.00" from="e4_in_west" to="e2_in_south"/>
    <trip id="37" depart="740.00" from="e3_out_east" to="e2_out_west"/>
    <trip id="38" depart="760.00" from="e4_in_west" to="e3_in_east"/>
    <trip id="39" depart="780.00" from="e1_out_east" to="e1_out_east"/>
    <trip id="40" depart="800.00" from="e3_in_north" to="e1_out_north"/>
    <trip id="41" depart="820.00" from="e3_in_north" to="e4_out_north"/>
    <trip id="42" depart="840.00" from="e2_in_west" to="e1_out_east"/>
    <trip id="43" depart="860.00" from="e4_out_north" to="e3_in_east"/>
    <trip id="44" depart="880.00" from="e1_in_east" to="e1_in_east"/>
    <trip id="45" depart="900.00" from="e1_in_east" to="e3_out_east"/>
    <trip id="46" depart="920.00" from="e4_in_east" to="e2_out_west"/>
    <trip id="47" depart="940.00" from="e1_in_east" to="e2_out_west"/>
    <trip id="48" depart="960.00" from="e4_out_north" to="e3_in_east"/>
    <trip id="49" depart="980.00" from="e4_out_north" to="e4_out_east"/>
    <trip id="50" depart="1000.00" from="e1_in_east" to="e3_out_east"/>
    <trip id="51" depart="1020.00" from="e3_out_east" to="e3_in_east"/>
    <trip id="52" depart="1040.00" from="e1_out_east" to="e3_out_east"/>
    <trip id="53" depart="1060.00" from="e1_in_east" to="e2_out_west"/>
    <trip id="54" depart="1080.00" from="e3_in_east" to="e4_out_west"/>
    <trip id="55" depart="1100.00" from="e4_in_west" to="e1_out_north"/>
    <trip id="56" depart="1120.00" from="e3_in_east" to="e1_out_east"/>
    <trip id="57" depart="1140.00" from="e4_in_west" to="e4_out_north"/>
    <trip id="58" depart="1160.00" from="e2_in_east" to="e3_out_east"/>
    <trip id="59" depart="1180.00" from="e3_in_south" to="e1_out_east"/>
    <trip id="60" depart="1200.00" from="e3_out_north" to="e3_in_east"/>
    <trip id="61" depart="1220.00" from="e3_out_north" to="e3_in_east"/>
    <trip id="62" depart="1240.00" from="e1_in_east" to="e2_out_east"/>
    <trip id="63" depart="1260.00" from="e1_in_east" to="e4_out_west"/>
    <trip id="64" depart="1280.00" from="e4_in_west" to="e4_in_north"/>
    <trip id="65" depart="1300.00" from="e2_in_east" to="e1_in_east"/>
    <trip id="66" depart="1320.00" from="e4_in_west" to="e4_out_west"/>
    <trip id="67" depart="1340.00" from="e1_in_east" to="e3_in_east"/>
    <trip id="68" depart="1360.00" from="e1_in_east" to="e3_out_north"/>
    <trip id="69" depart="1380.00" from="e3_out_north" to="e1_in_south"/>
    <trip id="70" depart="1400.00" from="e3_in_east" to="e3_in_east"/>
    <trip id="71" depart="1420.00" from="e1_out_east" to="e4_out_north"/>
    <trip id="72" depart="1440.00" from="e2_out_east" to="e1_out_east"/>
    <trip id="73" depart="1460.00" from="e3_in_east" to="e3_out_north"/>
    <trip id="74" depart="1480.00" from="e1_out_east" to="e2_in_south"/>
    <trip id="75" depart="1500.00" from="e4_out_north" to="e3_out_east"/>
    <trip id="76" depart="1520.00" from="e3_in_east" to="e3_in_east"/>
    <trip id="77" depart="1540.00" from="e1_in_east" to="e1_out_east"/>
    <trip id="78" depart="1560.00" from="e2_in_west" to="e3_in_north"/>
    <trip id="79" depart="1580.00" from="e1_out_east" to="e1_out_east"/>
    <trip id="80" depart="1600.00" from="e1_in_east" to="e3_out_east"/>
    <trip id="81" depart="1620.00" from="e1_out_east" to="e4_out_north"/>
    <trip id="82" depart="1640.00" from="e4_in_west" to="e1_in_east"/>
    <trip id="83" depart="1660.00" from="e1_out_east" to="e3_out_east"/>
    <trip id="84" depart="1680.00" from="e1_out_east" to="e1_out_east"/>
    <trip id="85" depart="1700.00" from="e4_in_west" to="e3_in_north"/>
    <trip id="86" depart="1720.00" from="e3_in_east" to="e3_out_west"/>
    <trip id="87" depart="1740.00" from="e4_in_east" to="e1_out_east"/>
    <trip id="88" depart="1760.00" from="e1_in_east" to="e2_out_west"/>
    <trip id="89" depart="1780.00" from="e2_out_east" to="e3_in_east"/>
    <trip id="90" depart="1800.00" from="e3_out_east" to="e3_out_east"/>
    <trip id="91" depart="1820.00" from="e4_out_north" to="e1_in_east"/>
    <trip id="92" depart="1840.00" from="e2_in_west" to="e2_out_north"/>
    <trip id="93" depart="1860.00" from="e4_in_west" to="e1_out_east"/>
    <trip id="94" depart="1880.00" from="e1_out_east" to="e3_in_east"/>
    <trip id="95" depart="1900.00" from="e2_out_east" to="e1_out_west"/>
    <trip id="96" depart="1920.00" from="e1_out_east" to="e4_out_west"/>
    <trip id="97" depart="1940.00" from="e3_in_east" to="e4_out_east"/>
    <trip id="98" depart="1960.00" from="e3_in_east" to="e1_in_east"/>
    <trip id="99" depart="1980.00" from="e4_out_north" to="e4_in_north"/>
    <trip id="100" depart="2000.00" from="e4_out_north" to="e4_out_west"/>
    <trip id="101" depart="2020.00" from="e4_in_north" to="e1_out_east"/>
    <trip id="102" depart="2040.00" from="e3_in_east" to="e1_out_east"/>
    <trip id="103" depart="2060.00" from="e2_in_west" to="e1_in_east"/>
    <trip id="104" depart="2080.00" from="e2_in_west" to="e4_out_west"/>
    <trip id="105" depart="2100.00" from="e1_out_east" to="e3_out_west"/>
    <trip id="106" depart="2120.00" from="e3_in_east" to="e2_out_west"/>
    <trip id="107" depart="2140.00" from="e4_out_east" to="e4_out_west"/>
    <trip id="108" depart="2160.00" from="e3_in_east" to="e3_out_east"/>
    <trip id="109" depart="2180.00" from="e1_in_west" to="e2_in_east"/>
    <trip id="110" depart="2200.00" from="e4_out_north" to="e3_in_north"/>
    <trip id="111" depart="2220.00" from="e3_in_east" to="e3_out_north"/>
    <trip id="112" depart="2240.00" from="e1_in_east" to="e3_in_north"/>
    <trip id="113" depart="2260.00" from="e3_in_east" to="e4_out_east"/>
    <trip id="114" depart="2280.00" from="e1_in_west" to="e4_out_west"/>
    <trip id="115" depart="2300.00" from="e1_in_east" to="e1_out_east"/>
    <trip id="116" depart="2320.00" from="e3_in_north" to="e3_out_east"/>
    <trip id="117" depart="2340.00" from="e1_out_east" to="e1_in_east"/>
    <trip id="118" depart="2360.00" from="e4_in_west" to="e1_out_east"/>
    <trip id="119" depart="2380.00" from="e3_in_north" to="e3_out_east"/>
    <trip id="120" depart="2400.00" from="e2_out_east" to="e3_in_north"/>
    <trip id="121" depart="2420.00" from="e3_in_east" to="e4_out_west"/>
    <trip id="122" depart="2440.00" from="e1_out_east" to="e3_out_east"/>
    <trip id="123" depart="2460.00" from="e1_out_east" to="e2_out_west"/>
    <trip id="124" depart="2480.00" from="e3_out_east" to="e2_in_east"/>
    <trip id="125" depart="2500.00" from="e2_in_north" to="e3_out_north"/>
    <trip id="126" depart="2520.00" from="e1_in_east" to="e3_in_east"/>
    <trip id="127" depart="2540.00" from="e4_out_north" to="e4_out_west"/>
    <trip id="128" depart="2560.00" from="e1_in_east" to="e1_out_east"/>
    <trip id="129" depart="2580.00" from="e1_out_east" to="e4_out_west"/>
    <trip id="130" depart="2600.00" from="e4_in_west" to="e4_out_north"/>
    <trip id="131" depart="2620.00" from="e2_in_west" to="e1_out_east"/>
    <trip id="132" depart="2640.00" from="e4_in_north" to="e3_out_east"/>
    <trip id="133" depart="2660.00" from="e3_in_west" to="e4_out_west"/>
    <trip id="134" depart="2680.00" from="e3_out_east" to="e1_in_east"/>
    <trip id="135" depart="2700.00" from="e4_in_north" to="e2_in_east"/>
    <trip id="136" depart="2720.00" from="e3_out_east" to="e4_out_west"/>
    <trip id="137" depart="2740.00" from="e1_in_south" to="e1_in_east"/>
    <trip id="138" depart="2760.00" from="e1_in_east" to="e3_in_east"/>
    <trip id="139" depart="2780.00" from="e1_out_east" to="e3_out_east"/>
    <trip id="140" depart="2800.00" from="e3_out_east" to="e1_out_east"/>
    <trip id="141" depart="2820.00" from="e3_out_east" to="e1_out_north"/>
    <trip id="142" depart="2840.00" from="e3_in_east" to="e4_out_north"/>
    <trip id="143" depart="2860.00" from="e4_in_north" to="e1_in_east"/>
    <trip id="144" depart="2880.00" from="e2_out_east" to="e1_out_west"/>
    <trip id="145" depart="2900.00" from="e1_in_east" to="e3_out_south"/>
    <trip id="146" depart="2920.00" from="e3_out_east" to="e1_out_north"/>
    <trip id="147" depart="2940.00" from="e3_out_east" to="e3_in_east"/>
    <trip id="148" depart="2960.00" from="e2_out_east" to="e1_in_east"/>
    <trip id="149" depart="2980.00" from="e1_in_east" to="e4_out_north"/>
    <trip id="150" depart="3000.00" from="e4_in_west" to="e3_in_east"/>
    <trip id="151" depart="3020.00" from="e4_in_north" to="e3_in_north"/>
    <trip id="152" depart="3040.00" from="e1_in_west" to="e1_in_south"/>
    <trip id="153" depart="3060.00" from="e2_in_east" to="e4_out_north"/>
    <trip id="154" depart="3080.00" from="e4_in_east" to="e4_out_east"/>
    <trip id="155" depart="3100.00" from="e4_in_west" to="e1_out_east"/>
    <trip id="156" depart="3120.00" from="e1_out_east" to="e1_in_east"/>
    <trip id="157" depart="3140.00" from="e3_out_north" to="e4_out_north"/>
    <trip id="158" depart="3160.00" from="e2_in_west" to="e3_out_east"/>
    <trip id="159" depart="3180.00" from="e1_in_west" to="e4_out_west"/>
    <trip id="160" depart="3200.00" from="e4_in_west" to="e4_out_west"/>
    <trip id="161" depart="3220.00" from="e4_in_east" to="e4_out_north"/>
    <trip id="162" depart="3240.00" from="e1_in_east" to="e3_out_north"/>
    <trip id="163" depart="3260.00" from="e2_in_west" to="e4_out_west"/>
    <trip id="164" depart="3280.00" from="e4_in_east" to="e4_out_east"/>
    <trip id="165" depart="3300.00" from="e4_in_east" to="e1_out_south"/>
    <trip id="166" depart="3320.00" from="e3_out_north" to="e1_in_east"/>
    <trip id="167" depart="3340.00" from="e4_in_west" to="e4_out_east"/>
    <trip id="168" depart="3360.00" from="e1_out_east" to="e4_in_north"/>
    <trip id="169" depart="3380.00" from="e3_in_east" to="e2_in_east"/>
    <trip id="170" depart="3400.00" from="e4_in_east" to="e1_out_east"/>
    <trip id="171" depart="3420.00" from="e1_in_east" to="e1_out_east"/>
    <trip id="172" depart="3440.00" from="e2_in_west" to="e4_out_east"/>
    <trip id="173" depart="3460.00" from="e4_out_north" to="e1_out_west"/>
    <trip id="174" depart="3480.00" from="e3_out_east" to="e2_out_west"/>
    <trip id="175" depart="3500.00" from="e4_out_north" to="e3_in_east"/>
    <trip id="176" depart="3520.00" from="e4_in_west" to="e1_in_east"/>
    <trip id="177" depart="3540.00" from="e4_out_north" to="e1_out_east"/>
    <trip id="178" depart="3560.00" from="e4_out_north" to="e1_out_south"/>
    <trip id="179" depart="3580.00" from="e1_in_east" to="e2_out_west"/>
    <trip id="180" depart="3600.00" from="e3_out_east" to="e2_in_south"/>
    <trip id="181" depart="3620.00" from="e3_in_south" to="e3_in_east"/>
    <trip id="182" depart="3640.00" from="e2_in_west" to="e3_in_north"/>
    <trip id="183" depart="3660.00" from="e1_out_east" to="e3_out_east"/>
    <trip id="184" depart="3680.00" from="e1_in_east" to="e4_out_west"/>
    <trip id="185" depart="3700.00" from="e3_in_east" to="e3_out_east"/>
    <trip id="186" depart="3720.00" from="e3_out_east" to="e3_out_east"/>
    <trip id="187" depart="3740.00" from="e2_in_west" to="e1_in_east"/>
    <trip id="188" depart="3760.00" from="e3_out_east" to="e2_out_east"/>
    <trip id="189" depart="3780.00" from="e2_in_north" to="e4_in_north"/>
    <trip id="190" depart="3800.00" from="e3_out_east" to="e2_in_east"/>
    <trip id="191" depart="3820.00" from="e2_in_east" to="e2_out_west"/>
    <trip id="192" depart="3840.00" from="e2_in_west" to="e2_in_east"/>
    <trip id="193" depart="3860.00" from="e1_in_north" to="e2_out_west"/>
    <trip id="194" depart="3880.00" from="e4_in_west" to="e3_out_east"/>
    <trip id="195" depart="3900.00" from="e4_in_west" to="e3_out_east"/>
    <trip id="196" depart="3920.00" from="e2_in_east" to="e3_in_east"/>
    <trip id="197" depart="3940.00" from="e1_in_east" to="e1_out_west"/>
    <trip id="198" depart="3960.00" from="e2_out_south" to="e3_in_north"/>
    <trip id="199" depart="3980.00" from="e3_out_east" to="e3_in_east"/>
    <trip id="200" depart="4000.00" from="e3_in_east" to="e1_out_east"/>
    <trip id="201" depart="4020.00" from="e3_in_east" to="e4_out_north"/>
    <trip id="202" depart="4040.00" from="e4_in_east" to="e1_out_east"/>
    <trip id="203" depart="4060.00" from="e1_in_east" to="e3_in_east"/>
    <trip id="204" depart="4080.00" from="e3_out_east" to="e2_out_east"/>
    <trip id="205" depart="4100.00" from="e4_in_north" to="e3_out_north"/>
    <trip id="206" depart="4120.00" from="e3_out_east" to="e1_out_east"/>
    <trip id="207" depart="4140.00" from="e1_out_east" to="e1_in_east"/>
    <trip id="208" depart="4160.00" from="e1_out_east" to="e3_in_east"/>
    <trip id="209" depart="4180.00" from="e4_in_north" to="e1_in_east"/>
    <trip id="210" depart="4200.00" from="e2_out_east" to="e3_out_east"/>
    <trip id="211" depart="4220.00" from="e1_out_east" to="e3_out_east"/>
    <trip id="212" depart="4240.00" from="e3_in_east" to="e1_out_east"/>
    <trip id="213" depart="4260.00" from="e3_out_east" to="e1_in_east"/>
    <trip id="214" depart="4280.00" from="e3_out_east" to="e3_out_south"/>
    <trip id="215" depart="4300.00" from="e1_in_east" to="e2_out_west"/>
    <trip id="216" depart="4320.00" from="e1_out_east" to="e4_out_west"/>
    <trip id="217" depart="4340.00" from="e3_in_east" to="e1_in_east"/>
    <trip id="218" depart="4360.00" from="e1_out_east" to="e4_in_north"/>
    <trip id="219" depart="4380.00" from="e3_in_east" to="e4_in_east"/>
    <trip id="220" depart="4400.00" from="e3_out_east" to="e4_out_west"/>
    <trip id="221" depart="4420.00" from="e3_in_north" to="e4_out_west"/>
    <trip id="222" depart="4440.00" from="e4_in_west" to="e3_out_east"/>
    <trip id="223" depart="4460.00" from="e3_out_east" to="e3_in_east"/>
    <trip id="224" depart="4480.00" from="e4_in_north" to="e3_in_east"/>
    <trip id="225" depart="4500.00" from="e4_in_west" to="e3_out_north"/>
    <trip id="226" depart="4520.00" from="e3_in_east" to="e1_out_north"/>
    <trip id="227" depart="4540.00" from="e1_out_east" to="e3_out_east"/>
    <trip id="228" depart="4560.00" from="e3_out_north" to="e3_in_east"/>
    <trip id="229" depart="4580.00" from="e3_in_west" to="e1_out_west"/>
    <trip id="230" depart="4600.00" from="e1_in_east" to="e1_out_west"/>
    <trip id="231" depart="4620.00" from="e1_out_east" to="e2_out_east"/>
    <trip id="232" depart="4640.00" from="e3_in_east" to="e1_out_east"/>
    <trip id="233" depart="4660.00" from="e1_out_east" to="e3_out_east"/>
    <trip id="234" depart="4680.00" from="e3_out_east" to="e1_in_east"/>
    <trip id="235" depart="4700.00" from="e2_in_west" to="e3_in_east"/>
    <trip id="236" depart="4720.00" from="e2_out_east" to="e1_out_east"/>
    <trip id="237" depart="4740.00" from="e2_out_east" to="e4_out_north"/>
    <trip id="238" depart="4760.00" from="e3_in_north" to="e3_out_east"/>
    <trip id="239" depart="4780.00" from="e4_in_south" to="e3_out_south"/>
    <trip id="240" depart="4800.00" from="e2_in_west" to="e1_in_east"/>
    <trip id="241" depart="4820.00" from="e2_in_west" to="e3_out_north"/>
    <trip id="242" depart="4840.00" from="e4_in_south" to="e4_out_west"/>
    <trip id="243" depart="4860.00" from="e2_out_east" to="e3_out_north"/>
    <trip id="244" depart="4880.00" from="e3_in_east" to="e3_out_east"/>
    <trip id="245" depart="4900.00" from="e1_out_east" to="e1_out_east"/>
    <trip id="246" depart="4920.00" from="e2_out_south" to="e1_in_east"/>
    <trip id="247" depart="4940.00" from="e2_in_west" to="e3_out_east"/>
    <trip id="248" depart="4960.00" from="e2_in_west" to="e1_out_east"/>
    <trip id="249" depart="4980.00" from="e3_in_east" to="e1_in_south"/>
    <trip id="250" depart="5000.00" from="e3_in_west" to="e1_in_east"/>
    <trip id="251" depart="5020.00" from="e2_in_west" to="e3_in_north"/>
    <trip id="252" depart="5040.00" from="e1_in_east" to="e3_out_east"/>
    <trip id="253" depart="5060.00" from="e1_in_south" to="e3_in_east"/>
    <trip id="254" depart="5080.00" from="e1_in_east" to="e2_out_west"/>
    <trip id="255" depart="5100.00" from="e1_out_east" to="e2_out_east"/>
    <trip id="256" depart="5120.00" from="e3_out_north" to="e2_out_west"/>
    <trip id="257" depart="5140.00" from="e3_out_north" to="e4_in_north"/>
    <trip id="258" depart="5160.00" from="e1_out_east" to="e1_in_east"/>
    <trip id="259" depart="5180.00" from="e1_in_east" to="e3_in_east"/>
    <trip id="260" depart="5200.00" from="e4_out_north" to="e2_out_south"/>
    <trip id="261" depart="5220.00" from="e3_out_east" to="e3_out_west"/>
    <trip id="262" depart="5240.00" from="e3_out_east" to="e3_out_north"/>
    <trip id="263" depart="5260.00" from="e4_out_east" to="e1_out_east"/>
    <trip id="264" depart="5280.00" from="e1_in_east" to="e1_out_east"/>
    <trip id="265" depart="5300.00" from="e1_in_north" to="e3_out_east"/>
    <trip id="266" depart="5320.00" from="e3_in_north" to="e1_out_east"/>
    <trip id="267" depart="5340.00" from="e3_out_east" to="e3_out_south"/>
    <trip id="268" depart="5360.00" from="e1_out_east" to="e3_out_east"/>
    <trip id="269" depart="5380.00" from="e3_out_east" to="e1_in_east"/>
    <trip id="270" depart="5400.00" from="e4_in_north" to="e4_out_west"/>
    <trip id="271" depart="5420.00" from="e1_in_east" to="e1_in_east"/>
    <trip id="272" depart="5440.00" from="e2_in_north" to="e3_out_east"/>
    <trip id="273" depart="5460.00" from="e4_out_east" to="e2_out_west"/>
    <trip id="274" depart="5480.00" from="e3_out_east" to="e1_in_east"/>
    <trip id="275" depart="5500.00" from="e3_out_east" to="e3_out_east"/>
    <trip id="276" depart="5520.00" from="e1_in_east" to="e3_out_south"/>
    <trip id="277" depart="5540.00" from="e4_in_north" to="e3_in_north"/>
    <trip id="278" depart="5560.00" from="e1_in_east" to="e4_out_west"/>
    <trip id="279" depart="5580.00" from="e3_out_north" to="e2_out_south"/>
    <trip id="280" depart="5600.00" from="e2_out_east" to="e2_out_west"/>
    <trip id="281" depart="5620.00" from="e3_in_east" to="e2_out_north"/>
    <trip id="282" depart="5640.00" from="e4_in_north" to="e4_in_north"/>
    <trip id="283" depart="5660.00" from="e1_in_east" to="e4_out_west"/>
    <trip id="284" depart="5680.00" from="e3_out_east" to="e4_in_north"/>
    <trip id="285" depart="5700.00" from="e3_out_east" to="e2_out_west"/>
    <trip id="286" depart="5720.00" from="e3_out_east" to="e4_out_west"/>
    <trip id="287" depart="5740.00" from="e1_out_east" to="e4_in_east"/>
    <trip id="288" depart="5760.00" from="e3_in_east" to="e3_in_east"/>
    <trip id="289" depart="5780.00" from="e2_out_south" to="e3_out_north"/>
    <trip id="290" depart="5800.00" from="e1_out_east" to="e4_out_east"/>
    <trip id="291" depart="5820.00" from="e4_in_north" to="e1_in_east"/>
    <trip id="292" depart="5840.00" from="e4_in_west" to="e1_out_east"/>
    <trip id="293" depart="5860.00" from="e3_in_east" to="e3_out_east"/>
    <trip id="294" depart="5880.00" from="e2_in_west" to="e1_in_east"/>
    <trip id="295" depart="5900.00" from="e4_in_south" to="e1_out_east"/>
    <trip id="296" depart="5920.00" from="e1_out_east" to="e4_in_east"/>
    <trip id="297" depart="5940.00" from="e2_in_west" to="e4_out_north"/>
    <trip id="298" depart="5960.00" from="e3_out_east" to="e1_out_west"/>
    <trip id="299" depart="5980.00" from="e1_in_east" to="e4_out_west"/>
    <trip id="300" depart="6000.00" from="e1_in_east" to="e3_out_east"/>
    <trip id="301" depart="6020.00" from="e3_in_east" to="e3_out_north"/>
    <trip id="302" depart="6040.00" from="e3_out_east" to="e3_out_east"/>
    <trip id="303" depart="6060.00" from="e3_in_east" to="e4_in_east"/>
    <trip id="304" depart="6080.00" from="e1_in_east" to="e1_out_east"/>
    <trip id="305" depart="6100.00" from="e3_out_east" to="e2_in_east"/>
    <trip id="306" depart="6120.00" from="e3_in_north" to="e3_in_east"/>
    <trip id="307" depart="6140.00" from="e3_in_east" to="e2_out_west"/>
    <trip id="308" depart="6160.00" from="e3_out_east" to="e2_out_east"/>
    <trip id="309" depart="6180.00" from="e3_out_east" to="e1_out_south"/>
    <trip id="310" depart="6200.00" from="e1_out_east" to="e1_in_east"/>
    <trip id="311" depart="6220.00" from="e1_out_east" to="e1_in_east"/>
    <trip id="312" depart="6240.00" from="e3_in_east" to="e3_out_north"/>
    <trip id="313" depart="6260.00" from="e1_out_east" to="e1_out_east"/>
    <trip id="314" depart="6280.00" from="e3_in_east" to="e3_out_north"/>
    <trip id="315" depart="6300.00" from="e4_out_north" to="e3_in_east"/>
    <trip id="316" depart="6320.00" from="e1_out_east" to="e1_in_east"/>
    <trip id="317" depart="6340.00" from="e1_out_east" to="e1_out_east"/>
    <trip id="318" depart="6360.00" from="e1_out_east" to="e1_in_east"/>
    <trip id="319" depart="6380.00" from="e3_in_east" to="e1_out_west"/>
    <trip id="320" depart="6400.00" from="e4_out_north" to="e3_in_east"/>
    <trip id="321" depart="6420.00" from="e3_out_east" to="e1_in_south"/>
    <trip id="322" depart="6440.00" from="e4_in_west" to="e3_in_east"/>
    <trip id="323" depart="6460.00" from="e4_in_west" to="e3_in_north"/>
    <trip id="324" depart="6480.00" from="e3_in_east" to="e3_in_east"/>
    <trip id="325" depart="6500.00" from="e1_out_east" to="e1_in_east"/>
    <trip id="326" depart="6520.00" from="e4_out_east" to="e3_in_east"/>
    <trip id="327" depart="6540.00" from="e4_in_north" to="e2_out_west"/>
    <trip id="328" depart="6560.00" from="e1_in_east" to="e3_out_east"/>
    <trip id="329" depart="6580.00" from="e1_in_east" to="e1_out_east"/>
    <trip id="330" depart="6600.00" from="e3_in_north" to="e2_in_east"/>
    <trip id="331" depart="6620.00" from="e4_out_north" to="e1_in_east"/>
    <trip id="332" depart="6640.00" from="e3_out_north" to="e3_out_east"/>
    <trip id="333" depart="6660.00" from="e3_out_north" to="e1_out_east"/>
    <trip id="334" depart="6680.00" from="e3_in_east" to="e3_in_east"/>
    <trip id="335" depart="6700.00" from="e3_in_east" to="e4_out_east"/>
    <trip id="336" depart="6720.00" from="e4_out_north" to="e2_in_east"/>
    <trip id="337" depart="6740.00" from="e3_in_west" to="e3_out_east"/>
    <trip id="338" depart="6760.00" from="e3_out_east" to="e4_out_west"/>
    <trip id="339" depart="6780.00" from="e1_out_east" to="e1_out_east"/>
    <trip id="340" depart="6800.00" from="e3_out_east" to="e1_out_east"/>
    <trip id="341" depart="6820.00" from="e1_out_east" to="e1_in_east"/>
    <trip id="342" depart="6840.00" from="e1_in_east" to="e3_in_east"/>
    <trip id="343" depart="6860.00" from="e3_in_north" to="e1_out_west"/>
    <trip id="344" depart="6880.00" from="e1_out_east" to="e3_out_east"/>
    <trip id="345" depart="6900.00" from="e3_out_east" to="e3_in_east"/>
    <trip id="346" depart="6920.00" from="e3_out_east" to="e4_out_west"/>
    <trip id="347" depart="6940.00" from="e3_out_north" to="e3_out_east"/>
    <trip id="348" depart="6960.00" from="e3_out_east" to="e4_out_west"/>
    <trip id="349" depart="6980.00" from="e2_out_east" to="e3_in_east"/>
    <trip id="350" depart="7000.00" from="e3_out_east" to="e4_out_north"/>
    <trip id="351" depart="7020.00" from="e4_in_north" to="e1_in_east"/>
    <trip id="352" depart="7040.00" from="e1_out_east" to="e2_in_east"/>
    <trip id="353" depart="7060.00" from="e3_out_east" to="e3_in_north"/>
    <trip id="354" depart="7080.00" from="e1_out_south" to="e1_in_south"/>
    <trip id="355" depart="7100.00" from="e3_out_east" to="e3_out_east"/>
    <trip id="356" depart="7120.00" from="e4_out_east" to="e3_in_east"/>
    <trip id="357" depart="7140.00" from="e3_in_east" to="e1_in_east"/>
    <trip id="358" depart="7160.00" from="e1_in_east" to="e2_out_west"/>
    <trip id="359" depart="7180.00" from="e2_in_south" to="e1_out_east"/>
    <trip id="360" depart="7200.00" from="e1_in_east" to="e4_out_west"/>
    <trip id="361" depart="7220.00" from="e4_in_north" to="e3_in_north"/>
    <trip id="362" depart="7240.00" from="e4_out_east" to="e4_out_west"/>
    <trip id="363" depart="7260.00" from="e3_out_east" to="e1_out_south"/>
    <trip id="364" depart="7280.00" from="e1_in_east" to="e3_out_north"/>
    <trip id="365" depart="7300.00" from="e3_in_east" to="e3_out_east"/>
    <trip id="366" depart="7320.00" from="e4_in_west" to="e1_out_east"/>
    <trip id="367" depart="7340.00" from="e3_in_north" to="e3_out_east"/>
    <trip id="368" depart="7360.00" from="e3_in_east" to="e1_in_east"/>
    <trip id="369" depart="7380.00" from="e2_in_west" to="e2_out_east"/>
    <trip id="370" depart="7400.00" from="e3_out_east" to="e4_out_east"/>
    <trip id="371" depart="7420.00" from="e2_in_west" to="e3_out_east"/>
    <trip id="372" depart="7440.00" from="e1_out_south" to="e4_out_west"/>
    <trip id="373" depart="7460.00" from="e4_in_north" to="e3_in_east"/>
    <trip id="374" depart="7480.00" from="e3_in_east" to="e2_in_south"/>
    <trip id="375" depart="7500.00" from="e2_in_south" to="e4_out_west"/>
    <trip id="376" depart="7520.00" from="e2_in_west" to="e3_in_east"/>
    <trip id="377" depart="7540.00" from="e4_out_north" to="e3_out_east"/>
    <trip id="378" depart="7560.00" from="e3_in_east" to="e2_out_west"/>
    <trip id="379" depart="7580.00" from="e1_out_east" to="e2_out_west"/>
    <trip id="380" depart="7600.00" from="e3_out_north" to="e3_out_east"/>
    <trip id="381" depart="7620.00" from="e3_out_north" to="e1_out_east"/>
    <trip id="382" depart="7640.00" from="e3_in_east" to="e4_out_west"/>
    <trip id="383" depart="7660.00" from="e3_in_east" to="e3_out_east"/>
    <trip id="384" depart="7680.00" from="e1_in_east" to="e4_out_west"/>
    <trip id="385" depart="7700.00" from="e3_in_south" to="e1_out_east"/>
    <trip id="386" depart="7720.00" from="e1_in_west" to="e3_in_east"/>
    <trip id="387" depart="7740.00" from="e3_in_east" to="e1_in_east"/>
    <trip id="388" depart="7760.00" from="e4_out_north" to="e4_out_south"/>
    <trip id="389" depart="7780.00" from="e3_in_east" to="e1_in_east"/>
    <trip id="390" depart="7800.00" from="e4_in_north" to="e3_in_east"/>
    <trip id="391" depart="7820.00" from="e3_out_east" to="e3_in_east"/>
    <trip id="392" depart="7840.00" from="e1_out_east" to="e4_in_north"/>
    <trip id="393" depart="7860.00" from="e4_out_north" to="e1_out_east"/>
    <trip id="394" depart="7880.00" from="e3_in_east" to="e2_out_west"/>
    <trip id="395" depart="7900.00" from="e4_in_west" to="e3_in_east"/>
    <trip id="396" depart="7920.00" from="e4_in_west" to="e4_out_east"/>
    <trip id="397" depart="7940.00" from="e1_out_east" to="e3_out_west"/>
    <trip id="398" depart="7960.00" from="e2_out_east" to="e4_out_west"/>
    <trip id="399" depart="7980.00" from="e3_in_east" to="e4_in_north"/>
    <trip id="400" depart="8000.00" from="e1_out_east" to="e2_in_east"/>
    <trip id="401" depart="8020.00" from="e3_in_north" to="e4_out_west"/>
    <trip id="402" depart="8040.00" from="e3_in_east" to="e1_out_east"/>
    <trip id="403" depart="8060.00" from="e3_in_east" to="e2_out_north"/>